validation_cases/use_cases/uc1/tmp_pglib_opf_case14_ieee.powermodels.json
{
    "ac": true,
    "baseMVA": 100,
    "branch": {
        "1": {
            "angmax": 1.0471975511965976,
            "angmin": -1.0471975511965976,
            "b_fr": 2.6399999999999997,
            "b_to": 2.6399999999999997,
            "br_r": 0.00019380000000000002,
            "br_status": 1,
            "br_x": 0.0005917,
            "f_bus": 1,
            "g_fr": 0.0,
            "g_to": 0.0,
            "index": 1,
            "rate_a": 471.99999999999994,
            "rate_b": 0.0,
            "rate_c": 0.0,
            "shift": 0.0,
            "t_bus": 2,
            "tap": 1.0,
            "transformer": false
        },
        "10": {
            "angmax": 1.0471975511965976,
            "angmin": -1.0471975511965976,
            "b_fr": 0.0,
            "b_to": 0.0,
            "br_r": 0.0006615,
            "br_status": 1,
            "br_x": 0.0013027,
            "f_bus": 6,
            "g_fr": 0.0,
            "g_to": 0.0,
            "index": 10,
            "rate_a": 201.0,
            "rate_b": 0.0,
            "rate_c": 0.0,
            "shift": 0.0,
            "t_bus": 13,
            "tap": 1.0,
            "transformer": false
        },
        "11": {
            "angmax": 1.0471975511965976,
            "angmin": -1.0471975511965976,
            "b_fr": 0.0,
            "b_to": 0.0,
            "br_r": 0.0,
            "br_status": 1,
            "br_x": 0.0017615,
            "f_bus": 7,
            "g_fr": 0.0,
            "g_to": 0.0,
            "index": 11,
            "rate_a": 167.0,
            "rate_b": 0.0,
            "rate_c": 0.0,
            "shift": 0.0,
            "t_bus": 8,
            "tap": 1.0,
            "transformer": false
        },
        "12": {
            "angmax": 1.0471975511965976,
            "angmin": -1.0471975511965976,
            "b_fr": 0.0,
            "b_to": 0.0,
            "br_r": 0.0,
            "br_status": 1,
            "br_x": 0.0011001,
            "f_bus": 7,
            "g_fr": 0.0,
            "g_to": 0.0,
            "index": 12,
            "rate_a": 267.0,
            "rate_b": 0.0,
            "rate_c": 0.0,
            "shift": 0.0,
            "t_bus": 9,
            "tap": 1.0,
            "transformer": false
        },
        "13": {
            "angmax": 1.0471975511965976,
            "angmin": -1.0471975511965976,
            "b_fr": 0.0,
            "b_to": 0.0,
            "br_r": 0.0003181,
            "br_status": 1,
            "br_x": 0.000845,
            "f_bus": 9,
            "g_fr": 0.0,
            "g_to": 0.0,
            "index": 13,
            "rate_a": 325.0,
            "rate_b": 0.0,
            "rate_c": 0.0,
            "shift": 0.0,
            "t_bus": 10,
            "tap": 1.0,
            "transformer": false
        },
        "14": {
            "angmax": 1.0471975511965976,
            "angmin": -1.0471975511965976,
            "b_fr": 0.0,
            "b_to": 0.0,
            "br_r": 0.0012711,
            "br_status": 1,
            "br_x": 0.0027038,
            "f_bus": 9,
            "g_fr": 0.0,
            "g_to": 0.0,
            "index": 14,
            "rate_a": 99.0,
            "rate_b": 0.0,
            "rate_c": 0.0,
            "shift": 0.0,
            "t_bus": 14,
            "tap": 1.0,
            "transformer": false
        },
        "15": {
            "angmax": 1.0471975511965976,
            "angmin": -1.0471975511965976,
            "b_fr": 0.0,
            "b_to": 0.0,
            "br_r": 0.0008204999999999999,
            "br_status": 1,
            "br_x": 0.0019207,
            "f_bus": 10,
            "g_fr": 0.0,
            "g_to": 0.0,
            "index": 15,
            "rate_a": 141.0,
            "rate_b": 0.0,
            "rate_c": 0.0,
            "shift": 0.0,
            "t_bus": 11,
            "tap": 1.0,
            "transformer": false
        },
        "16": {
            "angmax": 1.0471975511965976,
            "angmin": -1.0471975511965976,
            "b_fr": 0.0,
            "b_to": 0.0,
            "br_r": 0.0022092,
            "br_status": 1,
            "br_x": 0.0019988000000000002,
            "f_bus": 12,
            "g_fr": 0.0,
            "g_to": 0.0,
            "index": 16,
            "rate_a": 99.0,
            "rate_b": 0.0,
            "rate_c": 0.0,
            "shift": 0.0,
            "t_bus": 13,
            "tap": 1.0,
            "transformer": false
        },
        "17": {
            "angmax": 1.0471975511965976,
            "angmin": -1.0471975511965976,
            "b_fr": 0.0,
            "b_to": 0.0,
            "br_r": 0.0017093,
            "br_status": 1,
            "br_x": 0.0034802,
            "f_bus": 13,
            "g_fr": 0.0,
            "g_to": 0.0,
            "index": 17,
            "rate_a": 76.0,
            "rate_b": 0.0,
            "rate_c": 0.0,
            "shift": 0.0,
            "t_bus": 14,
            "tap": 1.0,
            "transformer": false
        },
        "18": {
            "angmax": 1.0471975511965976,
            "angmin": -1.0471975511965976,
            "b_fr": -0.0,
            "b_to": -0.0,
            "br_r": 0.0,
            "br_status": 1,
            "br_x": 0.0020912,
            "f_bus": 4,
            "g_fr": 0.0,
            "g_to": 0.0,
            "index": 18,
            "rate_a": 141.0,
            "rate_b": 0.0,
            "rate_c": 0.0,
            "shift": 0.0,
            "t_bus": 7,
            "tap": 0.978,
            "transformer": true
        },
        "19": {
            "angmax": 1.0471975511965976,
            "angmin": -1.0471975511965976,
            "b_fr": -0.0,
            "b_to": -0.0,
            "br_r": 0.0,
            "br_status": 1,
            "br_x": 0.0055618,
            "f_bus": 4,
            "g_fr": 0.0,
            "g_to": 0.0,
            "index": 19,
            "rate_a": 53.0,
            "rate_b": 0.0,
            "rate_c": 0.0,
            "shift": 0.0,
            "t_bus": 9,
            "tap": 0.969,
            "transformer": true
        },
        "2": {
            "angmax": 1.0471975511965976,
            "angmin": -1.0471975511965976,
            "b_fr": 2.46,
            "b_to": 2.46,
            "br_r": 0.0005403000000000001,
            "br_status": 1,
            "br_x": 0.0022304,
            "f_bus": 1,
            "g_fr": 0.0,
            "g_to": 0.0,
            "index": 2,
            "rate_a": 128.0,
            "rate_b": 0.0,
            "rate_c": 0.0,
            "shift": 0.0,
            "t_bus": 5,
            "tap": 1.0,
            "transformer": false
        },
        "20": {
            "angmax": 1.0471975511965976,
            "angmin": -1.0471975511965976,
            "b_fr": -0.0,
            "b_to": -0.0,
            "br_r": 0.0,
            "br_status": 1,
            "br_x": 0.0025202,
            "f_bus": 5,
            "g_fr": 0.0,
            "g_to": 0.0,
            "index": 20,
            "rate_a": 117.0,
            "rate_b": 0.0,
            "rate_c": 0.0,
            "shift": 0.0,
            "t_bus": 6,
            "tap": 0.932,
            "transformer": true
        },
        "3": {
            "angmax": 1.0471975511965976,
            "angmin": -1.0471975511965976,
            "b_fr": 2.19,
            "b_to": 2.19,
            "br_r": 0.0004699,
            "br_status": 1,
            "br_x": 0.0019797,
            "f_bus": 2,
            "g_fr": 0.0,
            "g_to": 0.0,
            "index": 3,
            "rate_a": 145.0,
            "rate_b": 0.0,
            "rate_c": 0.0,
            "shift": 0.0,
            "t_bus": 3,
            "tap": 1.0,
            "transformer": false
        },
        "4": {
            "angmax": 1.0471975511965976,
            "angmin": -1.0471975511965976,
            "b_fr": 1.7000000000000004,
            "b_to": 1.7000000000000004,
            "br_r": 0.0005811000000000001,
            "br_status": 1,
            "br_x": 0.0017632000000000001,
            "f_bus": 2,
            "g_fr": 0.0,
            "g_to": 0.0,
            "index": 4,
            "rate_a": 158.0,
            "rate_b": 0.0,
            "rate_c": 0.0,
            "shift": 0.0,
            "t_bus": 4,
            "tap": 1.0,
            "transformer": false
        },
        "5": {
            "angmax": 1.0471975511965976,
            "angmin": -1.0471975511965976,
            "b_fr": 1.7300000000000006,
            "b_to": 1.7300000000000006,
            "br_r": 0.0005695,
            "br_status": 1,
            "br_x": 0.0017388,
            "f_bus": 2,
            "g_fr": 0.0,
            "g_to": 0.0,
            "index": 5,
            "rate_a": 161.0,
            "rate_b": 0.0,
            "rate_c": 0.0,
            "shift": 0.0,
            "t_bus": 5,
            "tap": 1.0,
            "transformer": false
        },
        "6": {
            "angmax": 1.0471975511965976,
            "angmin": -1.0471975511965976,
            "b_fr": 0.64,
            "b_to": 0.64,
            "br_r": 0.0006701,
            "br_status": 1,
            "br_x": 0.0017102999999999999,
            "f_bus": 3,
            "g_fr": 0.0,
            "g_to": 0.0,
            "index": 6,
            "rate_a": 160.0,
            "rate_b": 0.0,
            "rate_c": 0.0,
            "shift": 0.0,
            "t_bus": 4,
            "tap": 1.0,
            "transformer": false
        },
        "7": {
            "angmax": 1.0471975511965976,
            "angmin": -1.0471975511965976,
            "b_fr": 0.0,
            "b_to": 0.0,
            "br_r": 0.00013350000000000002,
            "br_status": 1,
            "br_x": 0.0004211,
            "f_bus": 4,
            "g_fr": 0.0,
            "g_to": 0.0,
            "index": 7,
            "rate_a": 664.0,
            "rate_b": 0.0,
            "rate_c": 0.0,
            "shift": 0.0,
            "t_bus": 5,
            "tap": 1.0,
            "transformer": false
        },
        "8": {
            "angmax": 1.0471975511965976,
            "angmin": -1.0471975511965976,
            "b_fr": 0.0,
            "b_to": 0.0,
            "br_r": 0.0009498,
            "br_status": 1,
            "br_x": 0.001989,
            "f_bus": 6,
            "g_fr": 0.0,
            "g_to": 0.0,
            "index": 8,
            "rate_a": 134.0,
            "rate_b": 0.0,
            "rate_c": 0.0,
            "shift": 0.0,
            "t_bus": 11,
            "tap": 1.0,
            "transformer": false
        },
        "9": {
            "angmax": 1.0471975511965976,
            "angmin": -1.0471975511965976,
            "b_fr": 0.0,
            "b_to": 0.0,
            "br_r": 0.0012291000000000001,
            "br_status": 1,
            "br_x": 0.0025581,
            "f_bus": 6,
            "g_fr": 0.0,
            "g_to": 0.0,
            "index": 9,
            "rate_a": 104.0,
            "rate_b": 0.0,
            "rate_c": 0.0,
            "shift": 0.0,
            "t_bus": 12,
            "tap": 1.0,
            "transformer": false
        }
    },
    "bus": {
        "1": {
            "base_kv": 1.0,
            "bus_i": 1,
            "bus_type": 3,
            "index": 1,
            "va": 0.0,
            "vm": 1.0,
            "vmax": 1.00000001,
            "vmin": 0.99999999,
            "zone": 1
        },
        "10": {
            "base_kv": 1.0,
            "bus_i": 10,
            "bus_type": 1,
            "index": 10,
            "va": 0.0,
            "vm": 1.0,
            "vmax": 1.06,
            "vmin": 0.94,
            "zone": 1
        },
        "11": {
            "base_kv": 1.0,
            "bus_i": 11,
            "bus_type": 1,
            "index": 11,
            "va": 0.0,
            "vm": 1.0,
            "vmax": 1.06,
            "vmin": 0.94,
            "zone": 1
        },
        "12": {
            "base_kv": 1.0,
            "bus_i": 12,
            "bus_type": 1,
            "index": 12,
            "va": 0.0,
            "vm": 1.0,
            "vmax": 1.06,
            "vmin": 0.94,
            "zone": 1
        },
        "13": {
            "base_kv": 1.0,
            "bus_i": 13,
            "bus_type": 1,
            "index": 13,
            "va": 0.0,
            "vm": 1.0,
            "vmax": 1.06,
            "vmin": 0.94,
            "zone": 1
        },
        "14": {
            "base_kv": 1.0,
            "bus_i": 14,
            "bus_type": 1,
            "index": 14,
            "va": 0.0,
            "vm": 1.0,
            "vmax": 1.06,
            "vmin": 0.94,
            "zone": 1
        },
        "2": {
            "base_kv": 1.0,
            "bus_i": 2,
            "bus_type": 2,
            "index": 2,
            "va": 0.0,
            "vm": 1.0,
            "vmax": 1.06,
            "vmin": 0.94,
            "zone": 1
        },
        "3": {
            "base_kv": 1.0,
            "bus_i": 3,
            "bus_type": 2,
            "index": 3,
            "va": 0.0,
            "vm": 1.0,
            "vmax": 1.06,
            "vmin": 0.94,
            "zone": 1
        },
        "4": {
            "base_kv": 1.0,
            "bus_i": 4,
            "bus_type": 1,
            "index": 4,
            "va": 0.0,
            "vm": 1.0,
            "vmax": 1.06,
            "vmin": 0.94,
            "zone": 1
        },
        "5": {
            "base_kv": 1.0,
            "bus_i": 5,
            "bus_type": 1,
            "index": 5,
            "va": 0.0,
            "vm": 1.0,
            "vmax": 1.06,
            "vmin": 0.94,
            "zone": 1
        },
        "6": {
            "base_kv": 1.0,
            "bus_i": 6,
            "bus_type": 2,
            "index": 6,
            "va": 0.0,
            "vm": 1.0,
            "vmax": 1.06,
            "vmin": 0.94,
            "zone": 1
        },
        "7": {
            "base_kv": 1.0,
            "bus_i": 7,
            "bus_type": 1,
            "index": 7,
            "va": 0.0,
            "vm": 1.0,
            "vmax": 1.06,
            "vmin": 0.94,
            "zone": 1
        },
        "8": {
            "base_kv": 1.0,
            "bus_i": 8,
            "bus_type": 2,
            "index": 8,
            "va": 0.0,
            "vm": 1.0,
            "vmax": 1.06,
            "vmin": 0.94,
            "zone": 1
        },
        "9": {
            "base_kv": 1.0,
            "bus_i": 9,
            "bus_type": 1,
            "index": 9,
            "va": 0.0,
            "vm": 1.0,
            "vmax": 1.06,
            "vmin": 0.94,
            "zone": 1
        }
    },
    "correct_pm_network_data": true,
    "dcline": {},
    "gen": {
        "1": {
            "cost": [
                0,
                7.920951,
                0.0
            ],
            "gen_bus": 1,
            "gen_status": 1,
            "index": 1,
            "model": 2,
            "ncost": 3,
            "pg": 0.0,
            "pmax": 340.00000001,
            "pmin": -1e-08,
            "qg": 0.0,
            "qmax": 10.00000001,
            "qmin": -1e-08,
            "shutdown": 0.0,
            "startup": 0.0,
            "vg": 1.0
        },
        "2": {
            "cost": [
                0,
                23.269494,
                0.0
            ],
            "gen_bus": 2,
            "gen_status": 1,
            "index": 2,
            "model": 2,
            "ncost": 3,
            "pg": 29.5,
            "pmax": 59.00000001,
            "pmin": -1e-08,
            "qg": 0.0,
            "qmax": 30.00000001,
            "qmin": -30.00000001,
            "shutdown": 0.0,
            "startup": 0.0,
            "vg": 1.0
        },
        "3": {
            "cost": [
                0,
                0.0,
                0.0
            ],
            "gen_bus": 3,
            "gen_status": 1,
            "index": 3,
            "model": 2,
            "ncost": 3,
            "pg": 0.0,
            "pmax": 1e-08,
            "pmin": -1e-08,
            "qg": 0.0,
            "qmax": 40.00000001,
            "qmin": -1e-08,
            "shutdown": 0.0,
            "startup": 0.0,
            "vg": 1.0
        },
        "4": {
            "cost": [
                0,
                0.0,
                0.0
            ],
            "gen_bus": 6,
            "gen_status": 1,
            "index": 4,
            "model": 2,
            "ncost": 3,
            "pg": 0.0,
            "pmax": 1e-08,
            "pmin": -1e-08,
            "qg": 0.0,
            "qmax": 24.00000001,
            "qmin": -6.00000001,
            "shutdown": 0.0,
            "startup": 0.0,
            "vg": 1.0
        },
        "5": {
            "cost": [
                0,
                0.0,
                0.0
            ],
            "gen_bus": 8,
            "gen_status": 1,
            "index": 5,
            "model": 2,
            "ncost": 3,
            "pg": 0.0,
            "pmax": 1e-08,
            "pmin": -1e-08,
            "qg": 0.0,
            "qmax": 24.00000001,
            "qmin": -6.00000001,
            "shutdown": 0.0,
            "startup": 0.0,
            "vg": 1.0
        }
    },
    "load": {
        "1": {
            "index": 1,
            "load_bus": 2,
            "pd": 21.7,
            "qd": 12.7,
            "status": 1
        },
        "10": {
            "index": 10,
            "load_bus": 13,
            "pd": 13.5,
            "qd": 5.8,
            "status": 1
        },
        "11": {
            "index": 11,
            "load_bus": 14,
            "pd": 14.9,
            "qd": 5.0,
            "status": 1
        },
        "2": {
            "index": 2,
            "load_bus": 3,
            "pd": 94.2,
            "qd": 19.0,
            "status": 1
        },
        "3": {
            "index": 3,
            "load_bus": 4,
            "pd": 47.8,
            "qd": -3.9,
            "status": 1
        },
        "4": {
            "index": 4,
            "load_bus": 5,
            "pd": 7.6,
            "qd": 1.6,
            "status": 1
        },
        "5": {
            "index": 5,
            "load_bus": 6,
            "pd": 11.2,
            "qd": 7.5,
            "status": 1
        },
        "6": {
            "index": 6,
            "load_bus": 9,
            "pd": 29.5,
            "qd": 16.6,
            "status": 1
        },
        "7": {
            "index": 7,
            "load_bus": 10,
            "pd": 9.0,
            "qd": 5.8,
            "status": 1
        },
        "8": {
            "index": 8,
            "load_bus": 11,
            "pd": 3.5,
            "qd": 1.8,
            "status": 1
        },
        "9": {
            "index": 9,
            "load_bus": 12,
            "pd": 6.1,
            "qd": 1.6,
            "status": 1
        }
    },
    "name": "",
    "ne_branch": {},
    "per_unit": true,
    "pm_log_level": 0,
    "pm_mip_solver": "cbc",
    "pm_mip_time_limit": Infinity,
    "pm_model": "ACPPowerModel",
    "pm_nl_solver": "ipopt",
    "pm_nl_time_limit": Infinity,
    "pm_solver": "ipopt",
    "pm_time_limit": Infinity,
    "pm_tol": 1e-08,
    "shunt": {
        "1": {
            "bs": 0.19,
            "gs": 0.0,
            "index": 1,
            "shunt_bus": 9,
            "status": true
        }
    },
    "silence": true,
    "source_version": "2.0.0",
    "sourcetype": "matpower",
    "storage": {},
    "switch": {},
    "user_defined_params": {
        "gen_and_controllable_sgen": {
            "2": 2,
            "3": 3,
            "4": 4,
            "5": 5
        }
    }
}